
#======================================================================
# CRYSTAL DATA
#----------------------------------------------------------------------
data_VESTA_phase_1

_chemical_name_common                  'Ni  O                                 '
_cell_length_a                         8.258574
_cell_length_b                         8.258574
_cell_length_c                         23.258575
_cell_angle_alpha                      90.000000
_cell_angle_beta                       90.000000
_cell_angle_gamma                      90.000000
_cell_volume                           1586.329101
_space_group_name_H-M_alt              'P 1'
_space_group_IT_number                 1

loop_
_space_group_symop_operation_xyz
   'x, y, z'

loop_
   _atom_site_label
   _atom_site_occupancy
   _atom_site_fract_x
   _atom_site_fract_y
   _atom_site_fract_z
   _atom_site_adp_type
   _atom_site_U_iso_or_equiv
   _atom_site_type_symbol
   Ni1        1.0     0.000106     0.999174     0.322140    Uiso  ? Ni
   Ni2        1.0     0.248266     0.751360     0.322627    Uiso  ? Ni
   Ni3        1.0     0.749836     0.248228     0.322541    Uiso  ? Ni
   Ni4        1.0     0.000306     0.750958     0.050547    Uiso  ? Ni
   Ni5        1.0     0.500141     0.250312     0.049013    Uiso  ? Ni
   Ni6        1.0     0.751193     0.000662     0.050029    Uiso  ? Ni
   Ni7        1.0     0.250109     0.249861     0.139431    Uiso  ? Ni
   Ni8        1.0     0.000162     0.500841     0.139548    Uiso  ? Ni
   Ni9        1.0     0.750351     0.749324     0.140376    Uiso  ? Ni
   Ni10       1.0     0.250683    -0.000476     0.232881    Uiso  ? Ni
   Ni11       1.0     0.499946     0.750689     0.233382    Uiso  ? Ni
   Ni12       1.0     0.749036     0.502100     0.233263    Uiso  ? Ni
   Ni13       1.0     0.249676     0.248754     0.322972    Uiso  ? Ni
   Ni14       1.0     0.000192     0.499903     0.323276    Uiso  ? Ni
   Ni15       1.0     0.498282     0.000262     0.322969    Uiso  ? Ni
   Ni16       1.0     0.000219     0.249046     0.050695    Uiso  ? Ni
   Ni17       1.0     0.250010     0.001848     0.049972    Uiso  ? Ni
   Ni18       1.0     0.750786     0.499348     0.050924    Uiso  ? Ni
   Ni19       1.0     0.000522     0.997978     0.139789    Uiso  ? Ni
   Ni20       1.0     0.250034     0.749986     0.139623    Uiso  ? Ni
   Ni21       1.0     0.499639     0.500311     0.139528    Uiso  ? Ni
   Ni22       1.0    -0.000339     0.751255     0.232594    Uiso  ? Ni
   Ni23       1.0     0.500345     0.249227     0.233825    Uiso  ? Ni
   Ni24       1.0     0.749856    -0.000801     0.232927    Uiso  ? Ni
   O1         1.0    -0.000625    -0.000508     0.048983    Uiso  ? O
   O2         1.0     0.247396     0.000955     0.324038    Uiso  ? O
   O3         1.0     0.000285     0.249898     0.323937    Uiso  ? O
   O4         1.0     0.247579     0.246418     0.047852    Uiso  ? O
   O5         1.0    -0.001225    -0.005486     0.232028    Uiso  ? O
   O6         1.0     0.244095     0.999082     0.140333    Uiso  ? O
   O7         1.0     0.006230     0.250992     0.140671    Uiso  ? O
   O8         1.0     0.257323     0.245188     0.232964    Uiso  ? O
   O9         1.0    -0.004416     0.499724     0.048579    Uiso  ? O
   O10        1.0     0.246581     0.499805     0.329313    Uiso  ? O
   O11        1.0     0.002570     0.749792     0.324402    Uiso  ? O
   O12        1.0     0.251094     0.754432     0.047654    Uiso  ? O
   O13        1.0    -0.001510     0.506835     0.232672    Uiso  ? O
   O14        1.0     0.249130     0.500861     0.138384    Uiso  ? O
   O15        1.0     0.001035     0.747947     0.139889    Uiso  ? O
   O16        1.0     0.250108     0.755122     0.232083    Uiso  ? O
   O17        1.0     0.501123     0.008306     0.043520    Uiso  ? O
   O18        1.0     0.751241     0.003459     0.323926    Uiso  ? O
   O19        1.0     0.500038     0.245341     0.325524    Uiso  ? O
   O20        1.0     0.752406     0.248803     0.048958    Uiso  ? O
   O21        1.0     0.501600    -0.000132     0.234599    Uiso  ? O
   O22        1.0     0.755751     0.993888     0.140042    Uiso  ? O
   O23        1.0     0.493322     0.250028     0.139986    Uiso  ? O
   O24        1.0     0.744563     0.250829     0.232457    Uiso  ? O
   O25        1.0     0.504735     0.494742     0.048499    Uiso  ? O
   O26        1.0     0.751867     0.495536     0.324857    Uiso  ? O
   O27        1.0     0.495401     0.753909     0.324721    Uiso  ? O
   O28        1.0     0.750978     0.750236     0.047813    Uiso  ? O
   O29        1.0     0.502103     0.500250     0.230973    Uiso  ? O
   O30        1.0     0.750598     0.505022     0.141286    Uiso  ? O
   O31        1.0     0.499001     0.748515     0.142187    Uiso  ? O
   O32        1.0     0.749360     0.750634     0.231976    Uiso  ? O
   Fe1        1.0     0.496797     0.497639     0.327925    Uiso  ? Fe
   Fe2        1.0     0.249264     0.498164     0.047382    Uiso  ? Fe
   Fe3        1.0     0.499595     0.998141     0.139549    Uiso  ? Fe
   Fe4        1.0     0.001877     0.250064     0.232758    Uiso  ? Fe
   Fe5        1.0     0.749812     0.750945     0.324663    Uiso  ? Fe
   Fe6        1.0     0.502662     0.754101     0.045193    Uiso  ? Fe
   Fe7        1.0     0.749073     0.249721     0.140251    Uiso  ? Fe
   Fe8        1.0     0.251822     0.500648     0.232874    Uiso  ? Fe
