
#======================================================================
# CRYSTAL DATA
#----------------------------------------------------------------------
data_VESTA_phase_1

_chemical_name_common                  'ba1 pr1 mn2 o6                        '
_cell_length_a                         23.715296
_cell_length_b                         7.906712
_cell_length_c                         28.000000
_cell_angle_alpha                      90.000000
_cell_angle_beta                       90.000000
_cell_angle_gamma                      90.000000
_cell_volume                           5250.280424
_space_group_name_H-M_alt              'P 1'
_space_group_IT_number                 1

loop_
_space_group_symop_operation_xyz
   'x, y, z'

loop_
   _atom_site_label
   _atom_site_occupancy
   _atom_site_fract_x
   _atom_site_fract_y
   _atom_site_fract_z
   _atom_site_adp_type
   _atom_site_U_iso_or_equiv
   _atom_site_type_symbol
   O1         1.0     0.079647     0.002234     0.386202    Uiso  ? O
   O2         1.0     0.753114     0.999952     0.389161    Uiso  ? O
   O3         1.0     0.081544     0.493329     0.388756    Uiso  ? O
   O4         1.0     0.752943     0.493251     0.384670    Uiso  ? O
   O5         1.0     0.240756     0.984175     0.397847    Uiso  ? O
   O6         1.0     0.591383     0.979905     0.395494    Uiso  ? O
   O7         1.0     0.916654     0.988570     0.389231    Uiso  ? O
   O8         1.0     0.242589     0.504217     0.419291    Uiso  ? O
   O9         1.0     0.582487     0.510001     0.406879    Uiso  ? O
   O10        1.0     0.915811     0.507032     0.390030    Uiso  ? O
   O11        1.0     0.001389     0.243878     0.388930    Uiso  ? O
   O12        1.0     0.671254     0.245942     0.385770    Uiso  ? O
   O13        1.0     0.997976     0.750407     0.393324    Uiso  ? O
   O14        1.0     0.669116     0.744608     0.393421    Uiso  ? O
   O15        1.0     0.162565     0.251967     0.386683    Uiso  ? O
   O16        1.0     0.832997     0.250101     0.391426    Uiso  ? O
   O17        1.0     0.164788     0.743459     0.387472    Uiso  ? O
   O18        1.0     0.836313     0.745276     0.384562    Uiso  ? O
   O19        1.0     0.000463     0.258367     0.154064    Uiso  ? O
   O20        1.0     0.333796     0.258367     0.154064    Uiso  ? O
   O21        1.0     0.667130     0.258367     0.154064    Uiso  ? O
   O22        1.0     0.001635     0.764012     0.170280    Uiso  ? O
   O23        1.0     0.334968     0.764012     0.170280    Uiso  ? O
   O24        1.0     0.668302     0.764012     0.170280    Uiso  ? O
   O25        1.0     0.165618     0.256913     0.173475    Uiso  ? O
   O26        1.0     0.498952     0.256913     0.173475    Uiso  ? O
   O27        1.0     0.832285     0.256913     0.173475    Uiso  ? O
   O28        1.0     0.164827     0.765257     0.158569    Uiso  ? O
   O29        1.0     0.498159     0.765257     0.158569    Uiso  ? O
   O30        1.0     0.831493     0.765257     0.158569    Uiso  ? O
   O31        1.0     0.082707     0.004495     0.165909    Uiso  ? O
   O32        1.0     0.416040     0.004495     0.165909    Uiso  ? O
   O33        1.0     0.749374     0.004495     0.165909    Uiso  ? O
   O34        1.0     0.083302     0.501812     0.163628    Uiso  ? O
   O35        1.0     0.416635     0.501812     0.163628    Uiso  ? O
   O36        1.0     0.749968     0.501812     0.163628    Uiso  ? O
   O37        1.0     0.249160     0.006388     0.161093    Uiso  ? O
   O38        1.0     0.582494     0.006388     0.161093    Uiso  ? O
   O39        1.0     0.915827     0.006388     0.161093    Uiso  ? O
   O40        1.0     0.249778     0.497056     0.165644    Uiso  ? O
   O41        1.0     0.583111     0.497056     0.165644    Uiso  ? O
   O42        1.0     0.916445     0.497056     0.165644    Uiso  ? O
   O43        1.0     0.329812     0.036616     0.010695    Uiso  ? O
   O44        1.0     0.663146     0.036616     0.010695    Uiso  ? O
   O45        1.0     0.996479     0.036616     0.010695    Uiso  ? O
   O46        1.0     0.329796     0.461536     0.017640    Uiso  ? O
   O47        1.0     0.663129     0.461536     0.017640    Uiso  ? O
   O48        1.0     0.996462     0.461536     0.017640    Uiso  ? O
   O49        1.0     0.162713     0.959110     0.016144    Uiso  ? O
   O50        1.0     0.496046     0.959110     0.016144    Uiso  ? O
   O51        1.0     0.829379     0.959110     0.016144    Uiso  ? O
   O52        1.0     0.160898     0.540633     0.007547    Uiso  ? O
   O53        1.0     0.494231     0.540633     0.007547    Uiso  ? O
   O54        1.0     0.827565     0.540633     0.007547    Uiso  ? O
   O55        1.0     0.330173     0.939789     0.312317    Uiso  ? O
   O56        1.0     0.662234     0.965355     0.313324    Uiso  ? O
   O57        1.0     0.996895     0.971717     0.312532    Uiso  ? O
   O58        1.0     0.308951     0.539433     0.324436    Uiso  ? O
   O59        1.0     0.653502     0.520983     0.322087    Uiso  ? O
   O60        1.0     0.999534     0.514352     0.321064    Uiso  ? O
   O61        1.0     0.168439     0.993466     0.317036    Uiso  ? O
   O62        1.0     0.487493     0.024246     0.328148    Uiso  ? O
   O63        1.0     0.829156     0.011731     0.317000    Uiso  ? O
   O64        1.0     0.173662     0.509343     0.312427    Uiso  ? O
   O65        1.0     0.494396     0.488530     0.308449    Uiso  ? O
   O66        1.0     0.830007     0.482537     0.310560    Uiso  ? O
   O67        1.0     0.072561     0.222853     0.247974    Uiso  ? O
   O68        1.0     0.404531     0.182711     0.267191    Uiso  ? O
   O69        1.0     0.735945     0.221650     0.247853    Uiso  ? O
   O70        1.0     0.095130     0.737667     0.239005    Uiso  ? O
   O71        1.0     0.430196     0.734804     0.248484    Uiso  ? O
   O72        1.0     0.759529     0.740941     0.238883    Uiso  ? O
   O73        1.0     0.262766     0.221047     0.237084    Uiso  ? O
   O74        1.0     0.592608     0.222501     0.237253    Uiso  ? O
   O75        1.0     0.928601     0.223084     0.235701    Uiso  ? O
   O76        1.0     0.240967     0.754485     0.242744    Uiso  ? O
   O77        1.0     0.571552     0.746267     0.247627    Uiso  ? O
   O78        1.0     0.904864     0.738621     0.246422    Uiso  ? O
   O79        1.0     0.095817     0.224142     0.089276    Uiso  ? O
   O80        1.0     0.429150     0.224142     0.089276    Uiso  ? O
   O81        1.0     0.762483     0.224142     0.089276    Uiso  ? O
   O82        1.0     0.070679     0.739821     0.082454    Uiso  ? O
   O83        1.0     0.404012     0.739821     0.082454    Uiso  ? O
   O84        1.0     0.737346     0.739821     0.082454    Uiso  ? O
   O85        1.0     0.238256     0.227877     0.080762    Uiso  ? O
   O86        1.0     0.571589     0.227877     0.080762    Uiso  ? O
   O87        1.0     0.904922     0.227877     0.080762    Uiso  ? O
   O88        1.0     0.261423     0.737801     0.087367    Uiso  ? O
   O89        1.0     0.594756     0.737801     0.087367    Uiso  ? O
   O90        1.0     0.928089     0.737801     0.087367    Uiso  ? O
   Fe1        1.0     0.356265     0.844338     0.488484    Uiso  ? Fe
   Fe2        1.0     0.477602     0.847223     0.489297    Uiso  ? Fe
   Fe3        1.0     0.417110     0.009724     0.437888    Uiso  ? Fe
   Fe4        1.0     0.301808     0.011493     0.432059    Uiso  ? Fe
   Fe5        1.0     0.416786     0.013498     0.539148    Uiso  ? Fe
   Fe6        1.0     0.357882     0.181463     0.488665    Uiso  ? Fe
   Fe7        1.0     0.476839     0.182385     0.489650    Uiso  ? Fe
   Fe8        1.0     0.418542     0.355504     0.436828    Uiso  ? Fe
   Fe9        1.0     0.299421     0.349582     0.435921    Uiso  ? Fe
   Fe10       1.0     0.417457     0.350124     0.540344    Uiso  ? Fe
   Fe11       1.0     0.358022     0.515476     0.489870    Uiso  ? Fe
   Fe12       1.0     0.477204     0.518516     0.489436    Uiso  ? Fe
   Fe13       1.0     0.416885     0.680358     0.433830    Uiso  ? Fe
   Fe14       1.0     0.298437     0.672942     0.433280    Uiso  ? Fe
   Fe15       1.0     0.417338     0.682298     0.540385    Uiso  ? Fe
   Fe16       1.0     0.535890     0.017813     0.436582    Uiso  ? Fe
   Fe17       1.0     0.536116     0.346699     0.437615    Uiso  ? Fe
   Fe18       1.0     0.536971     0.687263     0.435076    Uiso  ? Fe
   Fe19       1.0     0.473075     0.851900     0.379143    Uiso  ? Fe
   Fe20       1.0     0.358844     0.844143     0.373993    Uiso  ? Fe
   Fe21       1.0     0.473532     0.177337     0.384424    Uiso  ? Fe
   Fe22       1.0     0.365555     0.185104     0.385246    Uiso  ? Fe
   Fe23       1.0     0.480373     0.516611     0.380351    Uiso  ? Fe
   Fe24       1.0     0.361683     0.511674     0.369474    Uiso  ? Fe
   Fe25       1.0     0.406624     0.018261     0.320033    Uiso  ? Fe
   Fe26       1.0     0.427968     0.334811     0.318767    Uiso  ? Fe
   Fe27       1.0     0.432882     0.679350     0.314893    Uiso  ? Fe
   Fe1        1.0     0.997834     0.993954     0.388582    Uiso  ? Fe
   Fe2        1.0     0.674534     0.992503     0.389286    Uiso  ? Fe
   Fe3        1.0     0.998288     0.500758     0.390785    Uiso  ? Fe
   Fe4        1.0     0.673395     0.499406     0.390391    Uiso  ? Fe
   Fe5        1.0     0.159137     0.996723     0.387728    Uiso  ? Fe
   Fe6        1.0     0.835721     0.997262     0.387688    Uiso  ? Fe
   Fe7        1.0     0.161202     0.500049     0.391215    Uiso  ? Fe
   Fe8        1.0     0.835231     0.497158     0.386579    Uiso  ? Fe
   Fe9        1.0     0.083589     0.251293     0.158929    Uiso  ? Fe
   Fe10       1.0     0.416922     0.251293     0.158929    Uiso  ? Fe
   Fe11       1.0     0.750255     0.251293     0.158929    Uiso  ? Fe
   Fe12       1.0     0.083439     0.756677     0.166717    Uiso  ? Fe
   Fe13       1.0     0.416773     0.756677     0.166717    Uiso  ? Fe
   Fe14       1.0     0.750106     0.756677     0.166717    Uiso  ? Fe
   Fe15       1.0     0.250282     0.249749     0.166626    Uiso  ? Fe
   Fe16       1.0     0.583615     0.249749     0.166626    Uiso  ? Fe
   Fe17       1.0     0.916948     0.249749     0.166626    Uiso  ? Fe
   Ni1        1.0     0.250122     0.754479     0.162672    Uiso  ? Ni
   Ni2        1.0     0.583455     0.754479     0.162672    Uiso  ? Ni
   Ni3        1.0     0.916788     0.754479     0.162672    Uiso  ? Ni
   Sr1        1.0     0.082376     0.249578     0.002529    Uiso  ? Sr
   Sr2        1.0     0.415710     0.249578     0.002529    Uiso  ? Sr
   Sr3        1.0     0.749043     0.249578     0.002529    Uiso  ? Sr
   Sr4        1.0     0.248655     0.752013     0.001768    Uiso  ? Sr
   Sr5        1.0     0.581989     0.752013     0.001768    Uiso  ? Sr
   Sr6        1.0     0.915322     0.752013     0.001768    Uiso  ? Sr
   Sr7        1.0     0.331759     0.995921     0.098675    Uiso  ? Sr
   Sr8        1.0     0.665093     0.995921     0.098675    Uiso  ? Sr
   Sr9        1.0     0.998426     0.995921     0.098675    Uiso  ? Sr
   Sr10       1.0     0.162841     0.004045     0.230179    Uiso  ? Sr
   Sr11       1.0     0.500444     0.997975     0.231061    Uiso  ? Sr
   Sr12       1.0     0.834674     0.997815     0.230178    Uiso  ? Sr
   Sr13       1.0     0.079302     0.746433     0.331218    Uiso  ? Sr
   Sr14       1.0     0.754299     0.750341     0.330102    Uiso  ? Sr
   Ba1        1.0     0.249128     0.245618     0.329549    Uiso  ? Ba
   Ba2        1.0     0.585579     0.246077     0.328654    Uiso  ? Ba
   Ba3        1.0     0.917135     0.247583     0.327583    Uiso  ? Ba
   Ba4        1.0     0.000225     0.501612     0.231819    Uiso  ? Ba
   Ba5        1.0     0.332744     0.504541     0.234691    Uiso  ? Ba
   Ba6        1.0     0.669419     0.499649     0.232102    Uiso  ? Ba
   Ba7        1.0     0.168076     0.503785     0.097171    Uiso  ? Ba
   Ba8        1.0     0.501409     0.503785     0.097171    Uiso  ? Ba
   Ba9        1.0     0.834742     0.503785     0.097171    Uiso  ? Ba
   Pr1        1.0     0.000680     0.015179     0.228759    Uiso  ? Pr
   Pr2        1.0     0.327823     0.997401     0.226592    Uiso  ? Pr
   Pr3        1.0     0.669473     0.013559     0.228190    Uiso  ? Pr
   Pr4        1.0     0.166852     0.532944     0.226807    Uiso  ? Pr
   Pr5        1.0     0.504590     0.536323     0.223759    Uiso  ? Pr
   Pr6        1.0     0.835679     0.532419     0.227739    Uiso  ? Pr
   Pr7        1.0     0.088463     0.752889     0.000301    Uiso  ? Pr
   Pr8        1.0     0.421797     0.752889     0.000301    Uiso  ? Pr
   Pr9        1.0     0.755130     0.752889     0.000301    Uiso  ? Pr
   Pr10       1.0     0.257307     0.248166     0.000004    Uiso  ? Pr
   Pr11       1.0     0.590640     0.248166     0.000004    Uiso  ? Pr
   Pr12       1.0     0.923973     0.248166     0.000004    Uiso  ? Pr
   Pr13       1.0     0.079668     0.249227     0.335415    Uiso  ? Pr
   Pr14       1.0     0.756667     0.241874     0.333821    Uiso  ? Pr
   Pr15       1.0     0.237485     0.756666     0.327589    Uiso  ? Pr
   Pr16       1.0     0.593796     0.750740     0.331864    Uiso  ? Pr
   Pr17       1.0     0.919332     0.747302     0.334061    Uiso  ? Pr
   Pr18       1.0     0.331134     0.528981     0.101103    Uiso  ? Pr
   Pr19       1.0     0.664467     0.528981     0.101103    Uiso  ? Pr
   Pr20       1.0     0.997801     0.528981     0.101103    Uiso  ? Pr
   Pr21       1.0     0.168940     0.011596     0.100543    Uiso  ? Pr
   Pr22       1.0     0.502273     0.011596     0.100543    Uiso  ? Pr
   Pr23       1.0     0.835606     0.011596     0.100543    Uiso  ? Pr
